/*--------------------------------*- C++ -*----------------------------------*\
| =========                |                                                 |
| \      /  F ield         | OpenFOAM: The Open Source CFD Toolbox           |
|  \    /   O peration     | Version:  v2206                                 |
|   \  /    A nd           | Web:      www.OpenFOAM.com                      |
|    \/     M anipulation  |                                                 |
\*---------------------------------------------------------------------------*/
FoamFile
{
    version         2.0;
    format          ascii;
    class           dictionary;
    object          topoSetDict;
}
// * * * * * * * * * * * * * * * * * * * * * * * * * * * * * * * * * * * * * //

actions
(
    // actuationDisk1
    {
        name    actuationDisk1CellSet;
        type    cellSet;
        action  new;
        source  cylinderToCell;
        sourceInfo
        {
            p1     (150.0 4051.0 0.5);
            p2     (170.0 4051.0 0.5);
            radius 40.0;
        }
    }
    {
        name    actuationDisk1;
        type    cellZoneSet;
        action  new;
        source  setToCellZone;
        sourceInfo
        {
            set actuationDisk1CellSet;
        }
    }

    // actuationDisk2
    {
        name    actuationDisk2CellSet;
        type    cellSet;
        action  new;
        source  cylinderToCell;
        sourceInfo
        {
            p1     (218.0 3495.0 0.5);
            p2     (238.0 3495.0 0.5);
            radius 40.0;
        }
    }
    {
        name    actuationDisk2;
        type    cellZoneSet;
        action  new;
        source  setToCellZone;
        sourceInfo
        {
            set actuationDisk2CellSet;
        }
    }

    // actuationDisk3
    {
        name    actuationDisk3CellSet;
        type    cellSet;
        action  new;
        source  cylinderToCell;
        sourceInfo
        {
            p1     (287.0 2939.0 0.5);
            p2     (307.0 2939.0 0.5);
            radius 40.0;
        }
    }
    {
        name    actuationDisk3;
        type    cellZoneSet;
        action  new;
        source  setToCellZone;
        sourceInfo
        {
            set actuationDisk3CellSet;
        }
    }

    // actuationDisk4
    {
        name    actuationDisk4CellSet;
        type    cellSet;
        action  new;
        source  cylinderToCell;
        sourceInfo
        {
            p1     (355.0 2383.0 0.5);
            p2     (375.0 2383.0 0.5);
            radius 40.0;
        }
    }
    {
        name    actuationDisk4;
        type    cellZoneSet;
        action  new;
        source  setToCellZone;
        sourceInfo
        {
            set actuationDisk4CellSet;
        }
    }

    // actuationDisk5
    {
        name    actuationDisk5CellSet;
        type    cellSet;
        action  new;
        source  cylinderToCell;
        sourceInfo
        {
            p1     (423.0 1828.0 0.5);
            p2     (443.0 1828.0 0.5);
            radius 40.0;
        }
    }
    {
        name    actuationDisk5;
        type    cellZoneSet;
        action  new;
        source  setToCellZone;
        sourceInfo
        {
            set actuationDisk5CellSet;
        }
    }

    // actuationDisk6
    {
        name    actuationDisk6CellSet;
        type    cellSet;
        action  new;
        source  cylinderToCell;
        sourceInfo
        {
            p1     (491.0 1272.0 0.5);
            p2     (511.0 1272.0 0.5);
            radius 40.0;
        }
    }
    {
        name    actuationDisk6;
        type    cellZoneSet;
        action  new;
        source  setToCellZone;
        sourceInfo
        {
            set actuationDisk6CellSet;
        }
    }

    // actuationDisk7
    {
        name    actuationDisk7CellSet;
        type    cellSet;
        action  new;
        source  cylinderToCell;
        sourceInfo
        {
            p1     (560.0 716.0 0.5);
            p2     (580.0 716.0 0.5);
            radius 40.0;
        }
    }
    {
        name    actuationDisk7;
        type    cellZoneSet;
        action  new;
        source  setToCellZone;
        sourceInfo
        {
            set actuationDisk7CellSet;
        }
    }

    // actuationDisk8
    {
        name    actuationDisk8CellSet;
        type    cellSet;
        action  new;
        source  cylinderToCell;
        sourceInfo
        {
            p1     (628.0 160.0 0.5);
            p2     (648.0 160.0 0.5);
            radius 40.0;
        }
    }
    {
        name    actuationDisk8;
        type    cellZoneSet;
        action  new;
        source  setToCellZone;
        sourceInfo
        {
            set actuationDisk8CellSet;
        }
    }

    // actuationDisk9
    {
        name    actuationDisk9CellSet;
        type    cellSet;
        action  new;
        source  cylinderToCell;
        sourceInfo
        {
            p1     (710.0 4051.0 0.5);
            p2     (730.0 4051.0 0.5);
            radius 40.0;
        }
    }
    {
        name    actuationDisk9;
        type    cellZoneSet;
        action  new;
        source  setToCellZone;
        sourceInfo
        {
            set actuationDisk9CellSet;
        }
    }

    // actuationDisk10
    {
        name    actuationDisk10CellSet;
        type    cellSet;
        action  new;
        source  cylinderToCell;
        sourceInfo
        {
            p1     (778.0 3495.0 0.5);
            p2     (798.0 3495.0 0.5);
            radius 40.0;
        }
    }
    {
        name    actuationDisk10;
        type    cellZoneSet;
        action  new;
        source  setToCellZone;
        sourceInfo
        {
            set actuationDisk10CellSet;
        }
    }

    // actuationDisk11
    {
        name    actuationDisk11CellSet;
        type    cellSet;
        action  new;
        source  cylinderToCell;
        sourceInfo
        {
            p1     (847.0 2939.0 0.5);
            p2     (867.0 2939.0 0.5);
            radius 40.0;
        }
    }
    {
        name    actuationDisk11;
        type    cellZoneSet;
        action  new;
        source  setToCellZone;
        sourceInfo
        {
            set actuationDisk11CellSet;
        }
    }

    // actuationDisk12
    {
        name    actuationDisk12CellSet;
        type    cellSet;
        action  new;
        source  cylinderToCell;
        sourceInfo
        {
            p1     (915.0 2383.0 0.5);
            p2     (935.0 2383.0 0.5);
            radius 40.0;
        }
    }
    {
        name    actuationDisk12;
        type    cellZoneSet;
        action  new;
        source  setToCellZone;
        sourceInfo
        {
            set actuationDisk12CellSet;
        }
    }

    // actuationDisk13
    {
        name    actuationDisk13CellSet;
        type    cellSet;
        action  new;
        source  cylinderToCell;
        sourceInfo
        {
            p1     (983.0 1828.0 0.5);
            p2     (1003.0 1828.0 0.5);
            radius 40.0;
        }
    }
    {
        name    actuationDisk13;
        type    cellZoneSet;
        action  new;
        source  setToCellZone;
        sourceInfo
        {
            set actuationDisk13CellSet;
        }
    }

    // actuationDisk14
    {
        name    actuationDisk14CellSet;
        type    cellSet;
        action  new;
        source  cylinderToCell;
        sourceInfo
        {
            p1     (1051.0 1272.0 0.5);
            p2     (1071.0 1272.0 0.5);
            radius 40.0;
        }
    }
    {
        name    actuationDisk14;
        type    cellZoneSet;
        action  new;
        source  setToCellZone;
        sourceInfo
        {
            set actuationDisk14CellSet;
        }
    }

    // actuationDisk15
    {
        name    actuationDisk15CellSet;
        type    cellSet;
        action  new;
        source  cylinderToCell;
        sourceInfo
        {
            p1     (1120.0 716.0 0.5);
            p2     (1140.0 716.0 0.5);
            radius 40.0;
        }
    }
    {
        name    actuationDisk15;
        type    cellZoneSet;
        action  new;
        source  setToCellZone;
        sourceInfo
        {
            set actuationDisk15CellSet;
        }
    }

    // actuationDisk16
    {
        name    actuationDisk16CellSet;
        type    cellSet;
        action  new;
        source  cylinderToCell;
        sourceInfo
        {
            p1     (1188.0 160.0 0.5);
            p2     (1208.0 160.0 0.5);
            radius 40.0;
        }
    }
    {
        name    actuationDisk16;
        type    cellZoneSet;
        action  new;
        source  setToCellZone;
        sourceInfo
        {
            set actuationDisk16CellSet;
        }
    }

    // actuationDisk17
    {
        name    actuationDisk17CellSet;
        type    cellSet;
        action  new;
        source  cylinderToCell;
        sourceInfo
        {
            p1     (1270.0 4051.0 0.5);
            p2     (1290.0 4051.0 0.5);
            radius 40.0;
        }
    }
    {
        name    actuationDisk17;
        type    cellZoneSet;
        action  new;
        source  setToCellZone;
        sourceInfo
        {
            set actuationDisk17CellSet;
        }
    }

    // actuationDisk18
    {
        name    actuationDisk18CellSet;
        type    cellSet;
        action  new;
        source  cylinderToCell;
        sourceInfo
        {
            p1     (1338.0 3495.0 0.5);
            p2     (1358.0 3495.0 0.5);
            radius 40.0;
        }
    }
    {
        name    actuationDisk18;
        type    cellZoneSet;
        action  new;
        source  setToCellZone;
        sourceInfo
        {
            set actuationDisk18CellSet;
        }
    }

    // actuationDisk19
    {
        name    actuationDisk19CellSet;
        type    cellSet;
        action  new;
        source  cylinderToCell;
        sourceInfo
        {
            p1     (1407.0 2939.0 0.5);
            p2     (1427.0 2939.0 0.5);
            radius 40.0;
        }
    }
    {
        name    actuationDisk19;
        type    cellZoneSet;
        action  new;
        source  setToCellZone;
        sourceInfo
        {
            set actuationDisk19CellSet;
        }
    }

    // actuationDisk20
    {
        name    actuationDisk20CellSet;
        type    cellSet;
        action  new;
        source  cylinderToCell;
        sourceInfo
        {
            p1     (1475.0 2383.0 0.5);
            p2     (1495.0 2383.0 0.5);
            radius 40.0;
        }
    }
    {
        name    actuationDisk20;
        type    cellZoneSet;
        action  new;
        source  setToCellZone;
        sourceInfo
        {
            set actuationDisk20CellSet;
        }
    }

    // actuationDisk21
    {
        name    actuationDisk21CellSet;
        type    cellSet;
        action  new;
        source  cylinderToCell;
        sourceInfo
        {
            p1     (1543.0 1828.0 0.5);
            p2     (1563.0 1828.0 0.5);
            radius 40.0;
        }
    }
    {
        name    actuationDisk21;
        type    cellZoneSet;
        action  new;
        source  setToCellZone;
        sourceInfo
        {
            set actuationDisk21CellSet;
        }
    }

    // actuationDisk22
    {
        name    actuationDisk22CellSet;
        type    cellSet;
        action  new;
        source  cylinderToCell;
        sourceInfo
        {
            p1     (1611.0 1272.0 0.5);
            p2     (1631.0 1272.0 0.5);
            radius 40.0;
        }
    }
    {
        name    actuationDisk22;
        type    cellZoneSet;
        action  new;
        source  setToCellZone;
        sourceInfo
        {
            set actuationDisk22CellSet;
        }
    }

    // actuationDisk23
    {
        name    actuationDisk23CellSet;
        type    cellSet;
        action  new;
        source  cylinderToCell;
        sourceInfo
        {
            p1     (1680.0 716.0 0.5);
            p2     (1700.0 716.0 0.5);
            radius 40.0;
        }
    }
    {
        name    actuationDisk23;
        type    cellZoneSet;
        action  new;
        source  setToCellZone;
        sourceInfo
        {
            set actuationDisk23CellSet;
        }
    }

    // actuationDisk24
    {
        name    actuationDisk24CellSet;
        type    cellSet;
        action  new;
        source  cylinderToCell;
        sourceInfo
        {
            p1     (1748.0 160.0 0.5);
            p2     (1768.0 160.0 0.5);
            radius 40.0;
        }
    }
    {
        name    actuationDisk24;
        type    cellZoneSet;
        action  new;
        source  setToCellZone;
        sourceInfo
        {
            set actuationDisk24CellSet;
        }
    }

    // actuationDisk25
    {
        name    actuationDisk25CellSet;
        type    cellSet;
        action  new;
        source  cylinderToCell;
        sourceInfo
        {
            p1     (1830.0 4051.0 0.5);
            p2     (1850.0 4051.0 0.5);
            radius 40.0;
        }
    }
    {
        name    actuationDisk25;
        type    cellZoneSet;
        action  new;
        source  setToCellZone;
        sourceInfo
        {
            set actuationDisk25CellSet;
        }
    }

    // actuationDisk26
    {
        name    actuationDisk26CellSet;
        type    cellSet;
        action  new;
        source  cylinderToCell;
        sourceInfo
        {
            p1     (1898.0 3495.0 0.5);
            p2     (1918.0 3495.0 0.5);
            radius 40.0;
        }
    }
    {
        name    actuationDisk26;
        type    cellZoneSet;
        action  new;
        source  setToCellZone;
        sourceInfo
        {
            set actuationDisk26CellSet;
        }
    }

    // actuationDisk27
    {
        name    actuationDisk27CellSet;
        type    cellSet;
        action  new;
        source  cylinderToCell;
        sourceInfo
        {
            p1     (1967.0 2939.0 0.5);
            p2     (1987.0 2939.0 0.5);
            radius 40.0;
        }
    }
    {
        name    actuationDisk27;
        type    cellZoneSet;
        action  new;
        source  setToCellZone;
        sourceInfo
        {
            set actuationDisk27CellSet;
        }
    }

    // actuationDisk28
    {
        name    actuationDisk28CellSet;
        type    cellSet;
        action  new;
        source  cylinderToCell;
        sourceInfo
        {
            p1     (2035.0 2383.0 0.5);
            p2     (2055.0 2383.0 0.5);
            radius 40.0;
        }
    }
    {
        name    actuationDisk28;
        type    cellZoneSet;
        action  new;
        source  setToCellZone;
        sourceInfo
        {
            set actuationDisk28CellSet;
        }
    }

    // actuationDisk29
    {
        name    actuationDisk29CellSet;
        type    cellSet;
        action  new;
        source  cylinderToCell;
        sourceInfo
        {
            p1     (2103.0 1828.0 0.5);
            p2     (2123.0 1828.0 0.5);
            radius 40.0;
        }
    }
    {
        name    actuationDisk29;
        type    cellZoneSet;
        action  new;
        source  setToCellZone;
        sourceInfo
        {
            set actuationDisk29CellSet;
        }
    }

    // actuationDisk30
    {
        name    actuationDisk30CellSet;
        type    cellSet;
        action  new;
        source  cylinderToCell;
        sourceInfo
        {
            p1     (2171.0 1272.0 0.5);
            p2     (2191.0 1272.0 0.5);
            radius 40.0;
        }
    }
    {
        name    actuationDisk30;
        type    cellZoneSet;
        action  new;
        source  setToCellZone;
        sourceInfo
        {
            set actuationDisk30CellSet;
        }
    }

    // actuationDisk31
    {
        name    actuationDisk31CellSet;
        type    cellSet;
        action  new;
        source  cylinderToCell;
        sourceInfo
        {
            p1     (2240.0 716.0 0.5);
            p2     (2260.0 716.0 0.5);
            radius 40.0;
        }
    }
    {
        name    actuationDisk31;
        type    cellZoneSet;
        action  new;
        source  setToCellZone;
        sourceInfo
        {
            set actuationDisk31CellSet;
        }
    }

    // actuationDisk32
    {
        name    actuationDisk32CellSet;
        type    cellSet;
        action  new;
        source  cylinderToCell;
        sourceInfo
        {
            p1     (2308.0 160.0 0.5);
            p2     (2328.0 160.0 0.5);
            radius 40.0;
        }
    }
    {
        name    actuationDisk32;
        type    cellZoneSet;
        action  new;
        source  setToCellZone;
        sourceInfo
        {
            set actuationDisk32CellSet;
        }
    }

    // actuationDisk33
    {
        name    actuationDisk33CellSet;
        type    cellSet;
        action  new;
        source  cylinderToCell;
        sourceInfo
        {
            p1     (2390.0 4051.0 0.5);
            p2     (2410.0 4051.0 0.5);
            radius 40.0;
        }
    }
    {
        name    actuationDisk33;
        type    cellZoneSet;
        action  new;
        source  setToCellZone;
        sourceInfo
        {
            set actuationDisk33CellSet;
        }
    }

    // actuationDisk34
    {
        name    actuationDisk34CellSet;
        type    cellSet;
        action  new;
        source  cylinderToCell;
        sourceInfo
        {
            p1     (2458.0 3495.0 0.5);
            p2     (2478.0 3495.0 0.5);
            radius 40.0;
        }
    }
    {
        name    actuationDisk34;
        type    cellZoneSet;
        action  new;
        source  setToCellZone;
        sourceInfo
        {
            set actuationDisk34CellSet;
        }
    }

    // actuationDisk35
    {
        name    actuationDisk35CellSet;
        type    cellSet;
        action  new;
        source  cylinderToCell;
        sourceInfo
        {
            p1     (2527.0 2939.0 0.5);
            p2     (2547.0 2939.0 0.5);
            radius 40.0;
        }
    }
    {
        name    actuationDisk35;
        type    cellZoneSet;
        action  new;
        source  setToCellZone;
        sourceInfo
        {
            set actuationDisk35CellSet;
        }
    }

    // actuationDisk36
    {
        name    actuationDisk36CellSet;
        type    cellSet;
        action  new;
        source  cylinderToCell;
        sourceInfo
        {
            p1     (2595.0 2383.0 0.5);
            p2     (2615.0 2383.0 0.5);
            radius 40.0;
        }
    }
    {
        name    actuationDisk36;
        type    cellZoneSet;
        action  new;
        source  setToCellZone;
        sourceInfo
        {
            set actuationDisk36CellSet;
        }
    }

    // actuationDisk37
    {
        name    actuationDisk37CellSet;
        type    cellSet;
        action  new;
        source  cylinderToCell;
        sourceInfo
        {
            p1     (2663.0 1828.0 0.5);
            p2     (2683.0 1828.0 0.5);
            radius 40.0;
        }
    }
    {
        name    actuationDisk37;
        type    cellZoneSet;
        action  new;
        source  setToCellZone;
        sourceInfo
        {
            set actuationDisk37CellSet;
        }
    }

    // actuationDisk38
    {
        name    actuationDisk38CellSet;
        type    cellSet;
        action  new;
        source  cylinderToCell;
        sourceInfo
        {
            p1     (2731.0 1272.0 0.5);
            p2     (2751.0 1272.0 0.5);
            radius 40.0;
        }
    }
    {
        name    actuationDisk38;
        type    cellZoneSet;
        action  new;
        source  setToCellZone;
        sourceInfo
        {
            set actuationDisk38CellSet;
        }
    }

    // actuationDisk39
    {
        name    actuationDisk39CellSet;
        type    cellSet;
        action  new;
        source  cylinderToCell;
        sourceInfo
        {
            p1     (2800.0 716.0 0.5);
            p2     (2820.0 716.0 0.5);
            radius 40.0;
        }
    }
    {
        name    actuationDisk39;
        type    cellZoneSet;
        action  new;
        source  setToCellZone;
        sourceInfo
        {
            set actuationDisk39CellSet;
        }
    }

    // actuationDisk40
    {
        name    actuationDisk40CellSet;
        type    cellSet;
        action  new;
        source  cylinderToCell;
        sourceInfo
        {
            p1     (2868.0 160.0 0.5);
            p2     (2888.0 160.0 0.5);
            radius 40.0;
        }
    }
    {
        name    actuationDisk40;
        type    cellZoneSet;
        action  new;
        source  setToCellZone;
        sourceInfo
        {
            set actuationDisk40CellSet;
        }
    }

    // actuationDisk41
    {
        name    actuationDisk41CellSet;
        type    cellSet;
        action  new;
        source  cylinderToCell;
        sourceInfo
        {
            p1     (2950.0 4051.0 0.5);
            p2     (2970.0 4051.0 0.5);
            radius 40.0;
        }
    }
    {
        name    actuationDisk41;
        type    cellZoneSet;
        action  new;
        source  setToCellZone;
        sourceInfo
        {
            set actuationDisk41CellSet;
        }
    }

    // actuationDisk42
    {
        name    actuationDisk42CellSet;
        type    cellSet;
        action  new;
        source  cylinderToCell;
        sourceInfo
        {
            p1     (3018.0 3495.0 0.5);
            p2     (3038.0 3495.0 0.5);
            radius 40.0;
        }
    }
    {
        name    actuationDisk42;
        type    cellZoneSet;
        action  new;
        source  setToCellZone;
        sourceInfo
        {
            set actuationDisk42CellSet;
        }
    }

    // actuationDisk43
    {
        name    actuationDisk43CellSet;
        type    cellSet;
        action  new;
        source  cylinderToCell;
        sourceInfo
        {
            p1     (3087.0 2939.0 0.5);
            p2     (3107.0 2939.0 0.5);
            radius 40.0;
        }
    }
    {
        name    actuationDisk43;
        type    cellZoneSet;
        action  new;
        source  setToCellZone;
        sourceInfo
        {
            set actuationDisk43CellSet;
        }
    }

    // actuationDisk44
    {
        name    actuationDisk44CellSet;
        type    cellSet;
        action  new;
        source  cylinderToCell;
        sourceInfo
        {
            p1     (3155.0 2383.0 0.5);
            p2     (3175.0 2383.0 0.5);
            radius 40.0;
        }
    }
    {
        name    actuationDisk44;
        type    cellZoneSet;
        action  new;
        source  setToCellZone;
        sourceInfo
        {
            set actuationDisk44CellSet;
        }
    }

    // actuationDisk45
    {
        name    actuationDisk45CellSet;
        type    cellSet;
        action  new;
        source  cylinderToCell;
        sourceInfo
        {
            p1     (3223.0 1828.0 0.5);
            p2     (3243.0 1828.0 0.5);
            radius 40.0;
        }
    }
    {
        name    actuationDisk45;
        type    cellZoneSet;
        action  new;
        source  setToCellZone;
        sourceInfo
        {
            set actuationDisk45CellSet;
        }
    }

    // actuationDisk46
    {
        name    actuationDisk46CellSet;
        type    cellSet;
        action  new;
        source  cylinderToCell;
        sourceInfo
        {
            p1     (3291.0 1272.0 0.5);
            p2     (3311.0 1272.0 0.5);
            radius 40.0;
        }
    }
    {
        name    actuationDisk46;
        type    cellZoneSet;
        action  new;
        source  setToCellZone;
        sourceInfo
        {
            set actuationDisk46CellSet;
        }
    }

    // actuationDisk47
    {
        name    actuationDisk47CellSet;
        type    cellSet;
        action  new;
        source  cylinderToCell;
        sourceInfo
        {
            p1     (3360.0 716.0 0.5);
            p2     (3380.0 716.0 0.5);
            radius 40.0;
        }
    }
    {
        name    actuationDisk47;
        type    cellZoneSet;
        action  new;
        source  setToCellZone;
        sourceInfo
        {
            set actuationDisk47CellSet;
        }
    }

    // actuationDisk48
    {
        name    actuationDisk48CellSet;
        type    cellSet;
        action  new;
        source  cylinderToCell;
        sourceInfo
        {
            p1     (3428.0 160.0 0.5);
            p2     (3448.0 160.0 0.5);
            radius 40.0;
        }
    }
    {
        name    actuationDisk48;
        type    cellZoneSet;
        action  new;
        source  setToCellZone;
        sourceInfo
        {
            set actuationDisk48CellSet;
        }
    }

    // actuationDisk49
    {
        name    actuationDisk49CellSet;
        type    cellSet;
        action  new;
        source  cylinderToCell;
        sourceInfo
        {
            p1     (3510.0 4051.0 0.5);
            p2     (3530.0 4051.0 0.5);
            radius 40.0;
        }
    }
    {
        name    actuationDisk49;
        type    cellZoneSet;
        action  new;
        source  setToCellZone;
        sourceInfo
        {
            set actuationDisk49CellSet;
        }
    }

    // actuationDisk50
    {
        name    actuationDisk50CellSet;
        type    cellSet;
        action  new;
        source  cylinderToCell;
        sourceInfo
        {
            p1     (3578.0 3495.0 0.5);
            p2     (3598.0 3495.0 0.5);
            radius 40.0;
        }
    }
    {
        name    actuationDisk50;
        type    cellZoneSet;
        action  new;
        source  setToCellZone;
        sourceInfo
        {
            set actuationDisk50CellSet;
        }
    }

    // actuationDisk51
    {
        name    actuationDisk51CellSet;
        type    cellSet;
        action  new;
        source  cylinderToCell;
        sourceInfo
        {
            p1     (3647.0 2939.0 0.5);
            p2     (3667.0 2939.0 0.5);
            radius 40.0;
        }
    }
    {
        name    actuationDisk51;
        type    cellZoneSet;
        action  new;
        source  setToCellZone;
        sourceInfo
        {
            set actuationDisk51CellSet;
        }
    }

    // actuationDisk52
    {
        name    actuationDisk52CellSet;
        type    cellSet;
        action  new;
        source  cylinderToCell;
        sourceInfo
        {
            p1     (3715.0 2383.0 0.5);
            p2     (3735.0 2383.0 0.5);
            radius 40.0;
        }
    }
    {
        name    actuationDisk52;
        type    cellZoneSet;
        action  new;
        source  setToCellZone;
        sourceInfo
        {
            set actuationDisk52CellSet;
        }
    }

    // actuationDisk53
    {
        name    actuationDisk53CellSet;
        type    cellSet;
        action  new;
        source  cylinderToCell;
        sourceInfo
        {
            p1     (3783.0 1828.0 0.5);
            p2     (3803.0 1828.0 0.5);
            radius 40.0;
        }
    }
    {
        name    actuationDisk53;
        type    cellZoneSet;
        action  new;
        source  setToCellZone;
        sourceInfo
        {
            set actuationDisk53CellSet;
        }
    }

    // actuationDisk54
    {
        name    actuationDisk54CellSet;
        type    cellSet;
        action  new;
        source  cylinderToCell;
        sourceInfo
        {
            p1     (3851.0 1272.0 0.5);
            p2     (3871.0 1272.0 0.5);
            radius 40.0;
        }
    }
    {
        name    actuationDisk54;
        type    cellZoneSet;
        action  new;
        source  setToCellZone;
        sourceInfo
        {
            set actuationDisk54CellSet;
        }
    }

    // actuationDisk55
    {
        name    actuationDisk55CellSet;
        type    cellSet;
        action  new;
        source  cylinderToCell;
        sourceInfo
        {
            p1     (3920.0 716.0 0.5);
            p2     (3940.0 716.0 0.5);
            radius 40.0;
        }
    }
    {
        name    actuationDisk55;
        type    cellZoneSet;
        action  new;
        source  setToCellZone;
        sourceInfo
        {
            set actuationDisk55CellSet;
        }
    }

    // actuationDisk56
    {
        name    actuationDisk56CellSet;
        type    cellSet;
        action  new;
        source  cylinderToCell;
        sourceInfo
        {
            p1     (3988.0 160.0 0.5);
            p2     (4008.0 160.0 0.5);
            radius 40.0;
        }
    }
    {
        name    actuationDisk56;
        type    cellZoneSet;
        action  new;
        source  setToCellZone;
        sourceInfo
        {
            set actuationDisk56CellSet;
        }
    }

    // actuationDisk57
    {
        name    actuationDisk57CellSet;
        type    cellSet;
        action  new;
        source  cylinderToCell;
        sourceInfo
        {
            p1     (4070.0 4051.0 0.5);
            p2     (4090.0 4051.0 0.5);
            radius 40.0;
        }
    }
    {
        name    actuationDisk57;
        type    cellZoneSet;
        action  new;
        source  setToCellZone;
        sourceInfo
        {
            set actuationDisk57CellSet;
        }
    }

    // actuationDisk58
    {
        name    actuationDisk58CellSet;
        type    cellSet;
        action  new;
        source  cylinderToCell;
        sourceInfo
        {
            p1     (4138.0 3495.0 0.5);
            p2     (4158.0 3495.0 0.5);
            radius 40.0;
        }
    }
    {
        name    actuationDisk58;
        type    cellZoneSet;
        action  new;
        source  setToCellZone;
        sourceInfo
        {
            set actuationDisk58CellSet;
        }
    }

    // actuationDisk59
    {
        name    actuationDisk59CellSet;
        type    cellSet;
        action  new;