/*--------------------------------*- C++ -*----------------------------------*\
| =========                 |                                                 |
| \\      /  F ield         | OpenFOAM: The Open Source CFD Toolbox           |
|  \\    /   O peration     | Version:  v1806                                 |
|   \\  /    A nd           | Web:      www.OpenFOAM.com                      |
|    \\/     M anipulation  |                                                 |
\*---------------------------------------------------------------------------*/
FoamFile
{
    version     2.0;
    format      ascii;
    class       dictionary;
    object      controlDict;
}
// * * * * * * * * * * * * * * * * * * * * * * * * * * * * * * * * * * * * * //

application     simpleFoam;

startFrom       latestTime;

startTime       0;

stopAt          endTime;

endTime         600;

deltaT          1;

writeControl    timeStep;

writeInterval   600;

purgeWrite      0;

writeFormat     binary;

writePrecision  12;

writeCompression off;

timeFormat      general;

timePrecision   6;

runTimeModifiable yes;

// Load some libraries
libs 
(
"libatmosphericModels.so" 
"lib_actuatorDiskFoam.so"
);

// Output Reynolds stress tensor.
// (to view it in Paraview, go to the last output folder and 
//  rename turbulenceProperties:R to R).
functions
{
    turbulenceFields1
    {
        type        turbulenceFields;
        libs        ("libfieldFunctionObjects.so");
        field		R;
        writeControl        writeTime;
    }
}


// ************************************************************************* //
